******
** ngspice-42 : Circuit level simulation program
** Compiled with Sparse Direct Linear Solver
** The U. C. Berkeley CAD Group
** Copyright 1985-1994, Regents of the University of California.
** Copyright 2001-2023, The ngspice team.
** Please get your ngspice manual from https://ngspice.sourceforge.io/docs.html
** Please file your bug-reports at http://ngspice.sourceforge.net/bugrep.html
** Creation Date: Wed Dec 27 18:41:13 UTC 2023
******

Note: No compatibility mode selected!


Circuit: * exemplo de netlist com fonte senoidal

Doing analysis at TEMP = 27.000000 and TNOM = 27.000000


Initial Transient Solution
--------------------------

Node                                   Voltage
----                                   -------
1                                            0
v1#branch                                    0


No. of Data Rows : 59
x                   =  3.141563e+00
vmax                =  9.996179e-01 at=  1.543150e+00
vpp                 =  9.996179e-01 from=  0.000000e+00 to=  3.140000e+00
 meas tran time_when_cross_first when v(1) cross 0.5 rise=1 failed!

[48;5;4m[1;38;5;18m I [0m [6 qngspice 3327 -> k[Klisting 
	* exemplo de netlist com fonte senoidal

     2 : .param t={2*4*atan(1)}
     3 : .param a=1
     4 : .param f=1/t
     5 : .global gnd
     6 : v1 1 0 sin(0 {a} {f})
     7 : r1 1 0 100
     8 : .tran {t/10} {t}
     9 : .control
    10 : run
    11 : meas tran x when v(1)=0 cross=1
    12 : meas tran vmax max v(1) from=0 to=3.14
    13 : meas tran vpp pp v(1) from=0 to=3.14
    14 : meas tran time_when_cross_first when v(1) cross 0.5 rise=1
    17 : .endc
    19 : .end
[48;5;4m[1;38;5;18m I [0m [6 qngspice 3328 -> 
[48;5;4m[1;38;5;18m I [0m [6 qngspice 3328 -> listing logical
	* exemplo de netlist com fonte senoidal

     2 : .param t={2*4*atan(1)}
     3 : .param a=1
     4 : .param f=1/t
     5 : .global gnd
     6 : v1 1 0 sin(0 {a} {f})
     7 : r1 1 0 100
     8 : .tran {t/10} {t}
     9 : .control
    10 : run
    11 : meas tran x when v(1)=0 cross=1
    12 : meas tran vmax max v(1) from=0 to=3.14
    13 : meas tran vpp pp v(1) from=0 to=3.14
    14 : meas tran time_when_cross_first when v(1) cross 0.5 rise=1
    17 : .endc
    19 : .end
[48;5;4m[1;38;5;18m I [0m [6 qngspice 3329 -> listing logical[K[K[K[K[K[K[Kdeck
* exemplo de netlist com fonte senoidal
.param t={2*4*atan(1)}
.param a=1
.param f=1/t
.global gnd
v1 1 0 sin(0 {a} {f})
r1 1 0 100
.tran {t/10} {t}
.control
run
meas tran x when v(1)=0 cross=1
meas tran vmax max v(1) from=0 to=3.14
meas tran vpp pp v(1) from=0 to=3.14
meas tran time_when_cross_first when v(1) cross 0.5 rise=1
*   wrdata output.csv v(1)
*    quit
.endc
*end
.end
[48;5;4m[1;38;5;18m I [0m [6 qngspice 3330 -> listing deck
* exemplo de netlist com fonte senoidal
.param t={2*4*atan(1)}
.param a=1
.param f=1/t
.global gnd
v1 1 0 sin(0 {a} {f})
r1 1 0 100
.tran {t/10} {t}
.control
run
meas tran x when v(1)=0 cross=1
meas tran vmax max v(1) from=0 to=3.14
meas tran vpp pp v(1) from=0 to=3.14
meas tran time_when_cross_first when v(1) cross 0.5 rise=1
*   wrdata output.csv v(1)
*    quit
.endc
*end
.end
[48;5;4m[1;38;5;18m I [0m [6 qngspice 3331 -> listing deck[K[K[K[Kphysical
	* exemplo de netlist com fonte senoidal

     1 : * exemplo de netlist com fonte senoidal
     2 : .param t={2*4*atan(1)}
     3 : .param a=1
     4 : .param f=1/t
     5 : .global gnd
     6 : v1 1 0 sin(0 {a} {f})
     7 : r1 1 0 100
     8 : .tran {t/10} {t}
     9 : .control
    10 : run
    11 : meas tran x when v(1)=0 cross=1
    12 : meas tran vmax max v(1) from=0 to=3.14
    13 : meas tran vpp pp v(1) from=0 to=3.14
    14 : meas tran time_when_cross_first when v(1) cross 0.5 rise=1
    15 : *   wrdata output.csv v(1)
    16 : *    quit
    17 : .endc
    18 : *end
    19 : .end
[48;5;4m[1;38;5;18m I [0m [6 qngspice 3332 -> ngspice-42 done
