
Note: No compatibility mode selected!


Circuit: * exemplo de netlist com fonte senoidal

Doing analysis at TEMP = 27.000000 and TNOM = 27.000000

Using SPARSE 1.3 as Direct Linear Solver

Initial Transient Solution
--------------------------

Node                                   Voltage
----                                   -------
1                                            0
v1#branch                                    0


No. of Data Rows : 59
x                   =  3.141563e+00
vmax                =  9.996179e-01 at=  1.543150e+00
vpp                 =  9.996179e-01 from=  0.000000e+00 to=  3.140000e+00
 meas tran time_when_cross_first when v(1) cross 0.5 rise=1 failed!

Note: Simulation executed from .control section 
